uq-usecase/pm-solver/m-cases/stress-test/case_ACTIVSg200_load2.0x_pm_flat_solved.m
function mpc = case_ACTIVSg200
%CASE_ACTIVSG200  Synthetic Illinois 200-bus power system model.
%
%   This is an entirely synthetic 200 bus case, geographically situated
%   in the central part of the US state of Illinois. The case is
%   designed with a 230 and 115 kV transmission network to serve
%   a load that roughly mimics the actual population of its geographic
%   footprint. The synthetic transmission system was designed by
%   algorithms described in [1] to be statistically similar to actual
%   transmission system models but without modeling any actual lines.
%
%   When publishing results based on this data, please cite:
%
%   [1] A.B. Birchfield, T. Xu, K.M. Gegner, K.S. Shetye, T.J. Overbye,
%       "Grid Structural Characteristics as Validation Criteria for
%       Synthetic Networks," IEEE Transactions on Power Systems, 2017.
%
%   This is a synthetic power system model that does not represent the
%   actual grid. It was developed as part of the US ARPA-E GRID DATA
%   research project and contains no CEII.
%
%   One-line diagrams and other data formats available at:
%       https://electricgrids.engr.tamu.edu
%
%   May 16, 2017

%   Created from ACTIV_SG_200.pwb, saved by
%   PowerWorld Simulator, version 20 Beta, build date May 19, 2017,
%   then by MATPOWER 6.

%   MATPOWER
%   Copyright (c) 2017 by A.B. Birchfield, T. Xu, K.M. Gegner, K.S. Shetye,
%   and T.J. Overbye
%   Licensed under the Creative Commons Attribution 4.0 International license,
%   http://creativecommons.org/licenses/by/4.0/

%% MATPOWER Case Format : Version 2
mpc.version = '2';

%%-----  Power Flow Data  -----%%
%% system MVA base
mpc.baseMVA = 100;

%% bus data
%	bus_i	type	Pd	Qd	Gs	Bs	area	Vm	Va	baseKV	zone	Vmax	Vmin	lam_P	lam_Q	mu_Vmax	mu_Vmin
mpc.bus = [
	1	1	0.000000	0.000000	0	0	1	0.9090537	-49.26281	115	2	1.1	0.9	6.8700	0.0000	0.0000	0.0000;
	2	1	14.780000	4.200000	0	0	1	0.9087898	-49.295076	115	2	1.1	0.9	6.8700	0.0000	0.0000	0.0000;
	3	1	0.000000	0.000000	0	0	1	0.934014	-47.948793	115	4	1.1	0.9	6.8700	0.0000	0.0000	0.0000;
	4	1	3.400000	0.960000	0	0	1	0.9339592	-47.955808	115	4	1.1	0.9	6.8700	0.0000	0.0000	0.0000;
	5	1	0.000000	0.000000	0	0	1	0.9608392	-36.167905	115	6	1.1	0.9	6.8700	0.0000	0.0000	0.0000;
	6	1	15.900000	4.520000	0	0	1	0.9605672	-36.198895	115	6	1.1	0.9	6.8700	0.0000	0.0000	0.0000;
	7	1	0.000000	0.000000	0	0	1	0.8940692	-51.050421	115	2	1.1	0.9	6.8700	0.0000	0.0000	0.0000;
	8	1	47.480000	13.540000	0	0	1	0.8932474	-51.152891	115	2	1.1	0.9	6.8700	0.0000	0.0000	0.0000;
	9	1	0.000000	0.000000	0	0	1	0.9027508	-50.437958	115	2	1.1	0.9	6.8700	0.0000	0.0000	0.0000;
	10	1	85.360000	24.320000	0	0	1	0.9011189	-50.666438	115	2	1.1	0.9	6.8700	0.0000	0.0000	0.0000;
	11	1	0.000000	0.000000	0	0	1	0.9443076	-37.875919	115	4	1.1	0.9	6.8700	0.0000	0.0000	0.0000;
	12	1	0.600000	0.180000	0	0	1	0.9442975	-37.877219	115	4	1.1	0.9	6.8700	0.0000	0.0000	0.0000;
	13	1	5.040000	1.440000	0	0	1	0.9442196	-37.887025	115	4	1.1	0.9	6.8700	0.0000	0.0000	0.0000;
	14	1	0.000000	0.000000	0	0	1	0.9086577	-30.63914	230	4	1.1	0.9	6.8700	0.0000	0.0000	0.0000;
	15	1	0.000000	0.000000	0	30	1	0.9191842	-33.909477	115	4	1.1	0.9	6.8700	0.0000	0.0000	0.0000;
	16	1	89.520000	25.520000	0	0	1	0.9177502	-34.094457	115	4	1.1	0.9	6.8700	0.0000	0.0000	0.0000;
	17	1	0.000000	0.000000	0	0	1	0.9095278	-48.007897	115	4	1.1	0.9	6.8700	0.0000	0.0000	0.0000;
	18	1	1.420000	0.400000	0	0	1	0.9095026	-48.011619	115	4	1.1	0.9	6.8700	0.0000	0.0000	0.0000;
	19	1	1.540000	0.440000	0	0	1	0.9095042	-48.011024	115	4	1.1	0.9	6.8700	0.0000	0.0000	0.0000;
	20	1	2.260000	0.640000	0	0	1	0.9094888	-48.012847	115	4	1.1	0.9	6.8700	0.0000	0.0000	0.0000;
	21	1	9.220000	2.620000	0	0	1	0.9093513	-48.031937	115	4	1.1	0.9	6.8700	0.0000	0.0000	0.0000;
	22	1	0.000000	0.000000	0	0	1	0.9624216	-40.510323	115	4	1.1	0.9	6.8700	0.0000	0.0000	0.0000;
	23	1	2.820000	0.800000	0	0	1	0.9623768	-40.515639	115	4	1.1	0.9	6.8700	0.0000	0.0000	0.0000;
	24	1	4.800000	1.360000	0	0	1	0.962344	-40.518853	115	4	1.1	0.9	6.8700	0.0000	0.0000	0.0000;
	25	1	0.000000	0.000000	0	0	1	0.9533797	-35.602952	115	6	1.1	0.9	6.8700	0.0000	0.0000	0.0000;
	26	1	2.700000	0.780000	0	0	1	0.9533373	-35.607879	115	6	1.1	0.9	6.8700	0.0000	0.0000	0.0000;
	27	1	0.000000	0.000000	0	0	1	0.9619784	-40.285697	115	4	1.1	0.9	6.8700	0.0000	0.0000	0.0000;
	28	1	4.660000	1.340000	0	0	1	0.9618947	-40.296648	115	4	1.1	0.9	6.8700	0.0000	0.0000	0.0000;
	29	1	0.000000	0.000000	0	0	1	0.9131407	-49.689713	115	2	1.1	0.9	6.8700	0.0000	0.0000	0.0000;
	30	1	118.180000	33.680000	0	0	1	0.9110751	-49.92845	115	2	1.1	0.9	6.8700	0.0000	0.0000	0.0000;
	31	1	0.000000	0.000000	0	0	1	0.8823307	-39.173525	115	7	1.1	0.9	6.8700	0.0000	0.0000	0.0000;
	32	1	1.020000	0.300000	0	0	1	0.8823098	-39.176293	115	7	1.1	0.9	6.8700	0.0000	0.0000	0.0000;
	33	1	12.880000	3.680000	0	0	1	0.8821016	-39.206599	115	7	1.1	0.9	6.8700	0.0000	0.0000	0.0000;
	34	1	0.000000	0.000000	0	0	1	0.9492529	-45.443894	115	4	1.1	0.9	6.8700	0.0000	0.0000	0.0000;
	35	1	41.520000	11.840000	0	0	1	0.9485413	-45.536631	115	4	1.1	0.9	6.8700	0.0000	0.0000	0.0000;
	36	1	0.000000	0.000000	0	0	1	0.8955554	-41.05305	115	7	1.1	0.9	6.8700	0.0000	0.0000	0.0000;
	37	1	7.140000	2.040000	0	0	1	0.8954355	-41.069223	115	7	1.1	0.9	6.8700	0.0000	0.0000	0.0000;
	38	1	59.620000	17.000000	0	0	1	0.8944387	-41.194631	115	7	1.1	0.9	6.8700	0.0000	0.0000	0.0000;
	39	1	14.820000	4.220000	0	0	1	0.9121172	-50.942665	115	4	1.1	0.9	6.8700	0.0000	0.0000	0.0000;
	40	1	4.080000	1.160000	0	0	1	0.9120551	-50.950981	115	4	1.1	0.9	6.8700	0.0000	0.0000	0.0000;
	41	1	76.680000	21.860000	0	0	1	0.907146	-36.82461	115	5	1.1	0.9	6.8700	0.0000	0.0000	0.0000;
	42	1	21.240000	6.060000	0	0	1	0.9285175	-52.194826	115	4	1.1	0.9	6.8700	0.0000	0.0000	0.0000;
	43	1	4.180000	1.180000	0	0	1	0.8750141	-42.269378	115	2	1.1	0.9	6.8700	0.0000	0.0000	0.0000;
	44	1	8.300000	2.360000	0	0	1	0.9239047	-51.980557	115	4	1.1	0.9	6.8700	0.0000	0.0000	0.0000;
	45	1	0.000000	0.000000	0	0	1	0.9256605	-20.25624	230	7	1.1	0.9	6.8700	0.0000	0.0000	0.0000;
	46	1	12.680000	3.620000	0	0	1	0.9178373	-21.77291	115	7	1.1	0.9	6.8700	0.0000	0.0000	0.0000;
	47	1	3.080000	0.880000	0	0	1	0.9725377	-42.268496	115	4	1.1	0.9	6.8700	0.0000	0.0000	0.0000;
	48	1	3.640000	1.040000	0	0	1	0.9586206	-37.085687	115	6	1.1	0.9	6.8700	0.0000	0.0000	0.0000;
	49	2	0.000000	0.000000	0	0	1	1.0	-36.778351	13.8	6	1.1	0.9	6.8700	0.0000	0.0000	0.0000;
	50	2	0.000000	0.000000	0	0	1	1.0	-36.88913	13.8	6	1.1	0.9	6.8700	0.0000	0.0000	0.0000;
	51	2	0.000000	0.000000	0	0	1	1.0	-36.696305	13.8	6	1.1	0.9	6.8700	0.0000	0.0000	0.0000;
	52	2	0.000000	0.000000	0	0	1	1.0	-36.917379	13.8	6	1.1	0.9	6.8700	0.0000	0.0000	0.0000;
	53	2	0.000000	0.000000	0	0	1	1.0	-36.238297	13.8	6	1.1	0.9	6.8700	0.0000	0.0000	0.0000;
	54	1	5.320000	1.520000	0	0	1	0.9661083	-43.090936	115	4	1.1	0.9	6.8700	0.0000	0.0000	0.0000;
	55	1	0.000000	0.000000	0	0	1	0.9227645	-24.658081	230	7	1.1	0.9	6.8700	0.0000	0.0000	0.0000;
	56	1	2.620000	0.740000	0	0	1	0.9170277	-25.530243	115	7	1.1	0.9	6.8700	0.0000	0.0000	0.0000;
	57	1	5.640000	1.600000	0	0	1	0.9250973	-49.579588	115	4	1.1	0.9	6.8700	0.0000	0.0000	0.0000;
	58	1	8.460000	2.420000	0	0	1	0.8946986	-37.649947	115	7	1.1	0.9	6.8700	0.0000	0.0000	0.0000;
	59	1	9.460000	2.700000	0	0	1	0.8746673	-46.72791	115	2	1.1	0.9	6.8700	0.0000	0.0000	0.0000;
	60	1	7.600000	2.160000	0	0	1	0.9350758	-47.125659	115	2	1.1	0.9	6.8700	0.0000	0.0000	0.0000;
	61	1	41.100000	11.720000	0	0	1	0.911732	-24.424092	115	7	1.1	0.9	6.8700	0.0000	0.0000	0.0000;
	62	1	42.820000	12.200000	0	0	1	0.9194225	-52.113447	115	4	1.1	0.9	6.8700	0.0000	0.0000	0.0000;
	63	1	15.960000	4.540000	0	0	1	0.953529	-40.706088	115	4	1.1	0.9	6.8700	0.0000	0.0000	0.0000;
	64	1	0.000000	0.000000	0	0	1	0.9676682	-34.501754	115	6	1.1	0.9	6.8700	0.0000	0.0000	0.0000;
	65	2	0.000000	0.000000	0	0	1	1.0	-29.318851	13.8	6	1.1	0.9	6.8700	0.0000	0.0000	0.0000;
	66	1	0.000000	0.000000	0	0	1	0.9798511	-41.340837	115	4	1.1	0.9	6.8700	0.0000	0.0000	0.0000;
	67	2	0.000000	0.000000	0	0	1	1.0	-41.389454	13.8	4	1.1	0.9	6.8700	0.0000	0.0000	0.0000;
	68	2	0.000000	0.000000	0	0	1	1.0	-40.072337	13.8	4	1.1	0.9	6.8700	0.0000	0.0000	0.0000;
	69	2	0.000000	0.000000	0	0	1	1.0	-40.929135	13.8	4	1.1	0.9	6.8700	0.0000	0.0000	0.0000;
	70	2	0.000000	0.000000	0	0	1	1.0	-40.40327	13.8	4	1.1	0.9	6.8700	0.0000	0.0000	0.0000;
	71	2	0.000000	0.000000	0	0	1	1.0	-40.991532	13.8	4	1.1	0.9	6.8700	0.0000	0.0000	0.0000;
	72	2	0.000000	0.000000	0	0	1	1.0	-41.030233	13.8	4	1.1	0.9	6.8700	0.0000	0.0000	0.0000;
	73	2	0.000000	0.000000	0	0	1	1.0	-40.677364	13.8	4	1.1	0.9	6.8700	0.0000	0.0000	0.0000;
	74	1	37.520000	10.700000	0	0	1	0.9328611	-38.215296	115	6	1.1	0.9	6.8700	0.0000	0.0000	0.0000;
	75	1	7.200000	2.060000	0	0	1	0.9430711	-47.773387	115	2	1.1	0.9	6.8700	0.0000	0.0000	0.0000;
	76	2	0.000000	0.000000	0	0	1	1.0	-47.369877	13.8	2	1.1	0.9	6.8700	0.0000	0.0000	0.0000;
	77	2	0.000000	0.000000	0	0	1	1.0	-46.939829	13.8	2	1.1	0.9	6.8700	0.0000	0.0000	0.0000;
	78	2	0.000000	0.000000	0	0	1	0.9430711	-47.773387	13.8	2	1.1	0.9	6.8700	0.0000	0.0000	0.0000;
	79	2	0.000000	0.000000	0	0	1	0.9430711	-47.773387	13.8	2	1.1	0.9	6.8700	0.0000	0.0000	0.0000;
	80	1	2.960000	0.840000	0	0	1	0.8946358	-32.397447	115	5	1.1	0.9	6.8700	0.0000	0.0000	0.0000;
	81	1	0.000000	0.000000	0	0	1	0.9062289	-27.355916	230	6	1.1	0.9	6.8700	0.0000	0.0000	0.0000;
	82	1	15.200000	4.340000	0	0	1	0.9020336	-31.27495	115	6	1.1	0.9	6.8700	0.0000	0.0000	0.0000;
	83	1	6.280000	1.780000	0	0	1	0.9187121	-41.040538	115	7	1.1	0.9	6.8700	0.0000	0.0000	0.0000;
	84	1	7.500000	2.140000	0	0	1	0.8769809	-39.34814	115	2	1.1	0.9	6.8700	0.0000	0.0000	0.0000;
	85	1	9.660000	2.760000	0	0	1	0.9092642	-50.284897	115	4	1.1	0.9	6.8700	0.0000	0.0000	0.0000;
	86	1	16.500000	4.700000	0	0	1	0.8978367	-50.723778	115	2	1.1	0.9	6.8700	0.0000	0.0000	0.0000;
	87	1	0.000000	0.000000	0	0	1	0.9397753	-45.304279	230	3	1.1	0.9	6.8700	0.0000	0.0000	0.0000;
	88	1	98.680000	28.120000	0	0	1	0.932399	-48.559942	115	3	1.1	0.9	6.8700	0.0000	0.0000	0.0000;
	89	1	125.700000	35.820000	0	0	1	0.8900743	-29.200827	115	7	1.1	0.9	6.8700	0.0000	0.0000	0.0000;
	90	2	0.000000	0.000000	0	0	1	1.0	-27.977706	13.8	7	1.1	0.9	6.8700	0.0000	0.0000	0.0000;
	91	2	0.000000	0.000000	0	0	1	1.0	-29.059553	13.8	7	1.1	0.9	6.8700	0.0000	0.0000	0.0000;
	92	2	0.000000	0.000000	0	0	1	0.8900743	-29.200827	13.8	7	1.1	0.9	6.8700	0.0000	0.0000	0.0000;
	93	1	6.120000	1.740000	0	0	1	0.9552968	-39.095444	115	4	1.1	0.9	6.8700	0.0000	0.0000	0.0000;
	94	2	0.000000	0.000000	0	0	1	1.0	-38.287564	13.8	4	1.1	0.9	6.8700	0.0000	0.0000	0.0000;
	95	1	6.000000	1.700000	0	30	1	0.8973013	-33.391416	115	7	1.1	0.9	6.8700	0.0000	0.0000	0.0000;
	96	1	5.920000	1.680000	0	0	1	0.9044047	-22.575364	115	7	1.1	0.9	6.8700	0.0000	0.0000	0.0000;
	97	1	14.660000	4.180000	0	0	1	0.9254277	-49.449289	115	2	1.1	0.9	6.8700	0.0000	0.0000	0.0000;
	98	1	0.000000	0.000000	0	0	1	0.9363067	-46.704861	230	2	1.1	0.9	6.8700	0.0000	0.0000	0.0000;
	99	1	24.340000	6.940000	0	0	1	0.9225251	-48.551671	115	2	1.1	0.9	6.8700	0.0000	0.0000	0.0000;
	100	1	74.780000	21.320000	0	80	1	0.9105607	-35.624557	115	5	1.1	0.9	6.8700	0.0000	0.0000	0.0000;
	101	1	1.040000	0.300000	0	0	1	0.8987122	-50.180889	115	2	1.1	0.9	6.8700	0.0000	0.0000	0.0000;
	102	1	0.000000	0.000000	0	0	1	0.929846	-23.989733	230	7	1.1	0.9	6.8700	0.0000	0.0000	0.0000;
	103	1	0.000000	0.000000	0	0	1	0.9156312	-25.68109	115	7	1.1	0.9	6.8700	0.0000	0.0000	0.0000;
	104	2	0.000000	0.000000	0	0	1	1.0	-20.436341	13.8	7	1.1	0.9	6.8700	0.0000	0.0000	0.0000;
	105	2	0.000000	0.000000	0	0	1	1.0	-18.38662	13.8	7	1.1	0.9	6.8700	0.0000	0.0000	0.0000;
	106	1	4.120000	1.180000	0	0	1	0.9023159	-29.093494	115	7	1.1	0.9	6.8700	0.0000	0.0000	0.0000;
	107	1	105.120000	29.960000	0	0	1	0.8697882	-38.066608	115	7	1.1	0.9	6.8700	0.0000	0.0000	0.0000;
	108	1	18.840000	5.360000	0	0	1	0.932874	-48.759544	115	2	1.1	0.9	6.8700	0.0000	0.0000	0.0000;
	109	1	10.320000	2.940000	0	0	1	0.9146629	-46.003719	115	4	1.1	0.9	6.8700	0.0000	0.0000	0.0000;
	110	1	21.720000	6.180000	0	0	1	0.8996042	-50.276158	115	2	1.1	0.9	6.8700	0.0000	0.0000	0.0000;
	111	1	17.640000	5.020000	0	0	1	0.9012609	-36.42208	115	5	1.1	0.9	6.8700	0.0000	0.0000	0.0000;
	112	1	0.000000	0.000000	0	0	1	0.9214047	-27.662756	230	7	1.1	0.9	6.8700	0.0000	0.0000	0.0000;
	113	1	0.000000	0.000000	0	0	1	0.8821424	-36.53626	115	7	1.1	0.9	6.8700	0.0000	0.0000	0.0000;
	114	2	0.000000	0.000000	0	0	1	1.0	-27.953446	13.8	7	1.1	0.9	6.8700	0.0000	0.0000	0.0000;
	115	2	0.000000	0.000000	0	0	1	1.0	-22.547211	13.8	7	1.1	0.9	6.8700	0.0000	0.0000	0.0000;
	116	1	0.000000	0.000000	0	0	1	0.930102	-45.16683	230	2	1.1	0.9	6.8700	0.0000	0.0000	0.0000;
	117	1	68.160000	19.420000	0	0	1	0.9025643	-47.55295	115	2	1.1	0.9	6.8700	0.0000	0.0000	0.0000;
	118	1	7.880000	2.240000	0	0	1	0.918412	-48.754973	115	2	1.1	0.9	6.8700	0.0000	0.0000	0.0000;
	119	1	35.100000	10.000000	0	0	1	0.8800627	-48.823958	115	2	1.1	0.9	6.8700	0.0000	0.0000	0.0000;
	120	1	3.600000	1.020000	0	0	1	0.909054	-49.408701	115	4	1.1	0.9	6.8700	0.0000	0.0000	0.0000;
	121	1	0.000000	0.000000	0	0	1	0.930697	-13.850285	230	7	1.1	0.9	6.8700	0.0000	0.0000	0.0000;
	122	1	30.880000	8.800000	0	0	1	0.9176038	-19.635694	115	7	1.1	0.9	6.8700	0.0000	0.0000	0.0000;
	123	1	0.000000	0.000000	0	0	1	0.9554668	-44.841894	230	2	1.1	0.9	6.8700	0.0000	0.0000	0.0000;
	124	1	0.000000	0.000000	0	0	1	0.9275991	-47.938562	115	2	1.1	0.9	6.8700	0.0000	0.0000	0.0000;
	125	2	0.000000	0.000000	0	0	1	1.0	-42.506584	13.8	2	1.1	0.9	6.8700	0.0000	0.0000	0.0000;
	126	2	0.000000	0.000000	0	0	1	1.0	-43.355899	13.8	2	1.1	0.9	6.8700	0.0000	0.0000	0.0000;
	127	2	0.000000	0.000000	0	0	1	1.0	-44.183994	13.8	2	1.1	0.9	6.8700	0.0000	0.0000	0.0000;
	128	1	0.000000	0.000000	0	0	1	0.9169567	-28.038129	230	7	1.1	0.9	6.8700	0.0000	0.0000	0.0000;
	129	1	154.480000	44.020000	0	0	1	0.8788074	-35.741786	115	7	1.1	0.9	6.8700	0.0000	0.0000	0.0000;
	130	1	8.800000	2.500000	0	0	1	0.8936003	-32.048268	115	7	1.1	0.9	6.8700	0.0000	0.0000	0.0000;
	131	1	60.500000	17.240000	0	0	1	0.9034337	-50.501594	115	2	1.1	0.9	6.8700	0.0000	0.0000	0.0000;
	132	1	53.920000	15.360000	0	0	1	0.876841	-46.33873	115	2	1.1	0.9	6.8700	0.0000	0.0000	0.0000;
	133	1	0.000000	0.000000	0	0	1	0.9561418	-43.535707	230	2	1.1	0.9	6.8700	0.0000	0.0000	0.0000;
	134	1	0.000000	0.000000	0	0	1	0.9450489	-45.01922	115	2	1.1	0.9	6.8700	0.0000	0.0000	0.0000;
	135	2	0.000000	0.000000	0	0	1	1.0	-40.879483	13.8	2	1.1	0.9	6.8700	0.0000	0.0000	0.0000;
	136	2	0.000000	0.000000	0	0	1	1.0	-41.371307	13.8	2	1.1	0.9	6.8700	0.0000	0.0000	0.0000;
	137	1	2.320000	0.660000	0	0	1	0.940731	-46.817252	115	4	1.1	0.9	6.8700	0.0000	0.0000	0.0000;
	138	1	4.180000	1.200000	0	0	1	0.8892803	-36.100223	115	6	1.1	0.9	6.8700	0.0000	0.0000	0.0000;
	139	1	13.680000	3.900000	0	0	1	0.8734671	-44.47628	115	2	1.1	0.9	6.8700	0.0000	0.0000	0.0000;
	140	1	16.420000	4.680000	0	0	1	0.9241308	-47.946476	115	2	1.1	0.9	6.8700	0.0000	0.0000	0.0000;
	141	1	2.840000	0.820000	0	0	1	0.9000532	-50.418089	115	2	1.1	0.9	6.8700	0.0000	0.0000	0.0000;
	142	1	74.520000	21.240000	0	0	1	0.899481	-50.862122	115	2	1.1	0.9	6.8700	0.0000	0.0000	0.0000;
	143	1	53.560000	15.260000	0	0	1	0.8813631	-28.873214	115	5	1.1	0.9	6.8700	0.0000	0.0000	0.0000;
	144	1	18.100000	5.160000	0	0	1	0.8843591	-41.064778	115	2	1.1	0.9	6.8700	0.0000	0.0000	0.0000;
	145	1	35.080000	10.000000	0	0	1	0.9200912	-50.248579	115	3	1.1	0.9	6.8700	0.0000	0.0000	0.0000;
	146	1	0.000000	0.000000	0	0	1	0.9307979	-39.020802	115	7	1.1	0.9	6.8700	0.0000	0.0000	0.0000;
	147	2	0.000000	0.000000	0	0	1	1.0	-33.328809	13.8	7	1.1	0.9	6.8700	0.0000	0.0000	0.0000;
	148	1	64.040000	18.260000	0	0	1	0.8872679	-52.095307	115	2	1.1	0.9	6.8700	0.0000	0.0000	0.0000;
	149	1	0.000000	0.000000	0	0	1	0.9449146	-44.233839	230	3	1.1	0.9	6.8700	0.0000	0.0000	0.0000;
	150	1	0.000000	0.000000	0	0	1	0.9397666	-47.346614	115	3	1.1	0.9	6.8700	0.0000	0.0000	0.0000;
	151	2	0.000000	0.000000	0	0	1	1.0	-43.739705	13.8	3	1.1	0.9	6.8700	0.0000	0.0000	0.0000;
	152	2	0.000000	0.000000	0	0	1	1.0	-42.30152	13.8	3	1.1	0.9	6.8700	0.0000	0.0000	0.0000;
	153	2	0.000000	0.000000	0	0	1	1.0	-41.738155	13.8	3	1.1	0.9	6.8700	0.0000	0.0000	0.0000;
	154	2	0.000000	0.000000	0	0	1	1.0	-42.867812	13.8	3	1.1	0.9	6.8700	0.0000	0.0000	0.0000;
	155	2	0.000000	0.000000	0	0	1	1.0	-42.91392	13.8	3	1.1	0.9	6.8700	0.0000	0.0000	0.0000;
	156	1	0.000000	0.000000	0	0	1	0.9546818	-44.54731	230	2	1.1	0.9	6.8700	0.0000	0.0000	0.0000;
	157	1	29.520000	8.420000	0	0	1	0.9490308	-46.214222	115	2	1.1	0.9	6.8700	0.0000	0.0000	0.0000;
	158	1	17.940000	5.120000	0	0	1	0.9647448	-40.372638	115	4	1.1	0.9	6.8700	0.0000	0.0000	0.0000;
	159	1	2.780000	0.800000	0	0	1	0.9186797	-50.854227	115	4	1.1	0.9	6.8700	0.0000	0.0000	0.0000;
	160	1	0.000000	0.000000	0	0	1	0.9305063	-51.767234	115	4	1.1	0.9	6.8700	0.0000	0.0000	0.0000;
	161	2	0.000000	0.000000	0	0	1	0.9305063	-51.767234	13.8	4	1.1	0.9	6.8700	0.0000	0.0000	0.0000;
	162	1	2.900000	0.820000	0	0	1	0.8890697	-43.215806	115	2	1.1	0.9	6.8700	0.0000	0.0000	0.0000;
	163	1	91.600000	26.100000	0	0	1	0.9071867	-36.334535	115	5	1.1	0.9	6.8700	0.0000	0.0000	0.0000;
	164	2	0.000000	0.000000	0	0	1	0.9071867	-36.334535	13.8	5	1.1	0.9	6.8700	0.0000	0.0000	0.0000;
	165	2	0.000000	0.000000	0	0	1	0.9071867	-36.334535	13.8	5	1.1	0.9	6.8700	0.0000	0.0000	0.0000;
	166	2	0.000000	0.000000	0	0	1	0.9071867	-36.334535	13.8	5	1.1	0.9	6.8700	0.0000	0.0000	0.0000;
	167	2	0.000000	0.000000	0	0	1	1.0	-36.296083	13.8	5	1.1	0.9	6.8700	0.0000	0.0000	0.0000;
	168	2	0.000000	0.000000	0	0	1	0.9071867	-36.334535	13.8	5	1.1	0.9	6.8700	0.0000	0.0000	0.0000;
	169	2	0.000000	0.000000	0	0	1	0.9071867	-36.334535	13.8	5	1.1	0.9	6.8700	0.0000	0.0000	0.0000;
	170	2	0.000000	0.000000	0	0	1	1.0	-35.921532	13.8	5	1.1	0.9	6.8700	0.0000	0.0000	0.0000;
	171	1	15.880000	4.520000	0	0	1	0.9040522	-36.385586	115	6	1.1	0.9	6.8700	0.0000	0.0000	0.0000;
	172	1	10.760000	3.060000	0	0	1	0.9263102	-37.706988	115	5	1.1	0.9	6.8700	0.0000	0.0000	0.0000;
	173	1	17.420000	4.960000	0	0	1	0.8944457	-34.819677	115	5	1.1	0.9	6.8700	0.0000	0.0000	0.0000;
	174	1	5.540000	1.580000	0	0	1	0.9005267	-31.69422	115	5	1.1	0.9	6.8700	0.0000	0.0000	0.0000;
	175	1	14.620000	4.160000	0	0	1	0.8959714	-35.904055	115	5	1.1	0.9	6.8700	0.0000	0.0000	0.0000;
	176	1	38.020000	10.840000	0	0	1	0.925589	-49.477561	115	3	1.1	0.9	6.8700	0.0000	0.0000	0.0000;
	177	1	22.580000	6.440000	0	0	1	0.8987261	-39.116341	115	7	1.1	0.9	6.8700	0.0000	0.0000	0.0000;
	178	1	0.000000	0.000000	0	0	1	0.8993504	-26.33681	230	5	1.1	0.9	6.8700	0.0000	0.0000	0.0000;
	179	1	47.220000	13.460000	0	0	1	0.9041312	-32.783247	115	5	1.1	0.9	6.8700	0.0000	0.0000	0.0000;
	180	1	15.480000	4.420000	0	0	1	0.9224551	-37.550984	115	5	1.1	0.9	6.8700	0.0000	0.0000	0.0000;
	181	1	95.960000	27.340000	0	0	1	0.9364652	-51.578845	115	4	1.1	0.9	6.8700	0.0000	0.0000	0.0000;
	182	2	0.000000	0.000000	0	0	1	1.0	-50.764817	13.8	4	1.1	0.9	6.8700	0.0000	0.0000	0.0000;
	183	2	0.000000	0.000000	0	0	1	1.0	-51.177574	13.8	4	1.1	0.9	6.8700	0.0000	0.0000	0.0000;
	184	1	21.380000	6.100000	0	0	1	0.9242297	-38.57126	115	5	1.1	0.9	6.8700	0.0000	0.0000	0.0000;
	185	1	21.580000	6.140000	0	0	1	0.9249705	-49.501183	115	3	1.1	0.9	6.8700	0.0000	0.0000	0.0000;
	186	1	4.200000	1.200000	0	0	1	0.9227225	-43.859618	115	2	1.1	0.9	6.8700	0.0000	0.0000	0.0000;
	187	1	0.000000	0.000000	0	0	1	0.9518537	-9.391999	230	7	1.1	0.9	6.8700	0.0000	0.0000	0.0000;
	188	1	0.000000	0.000000	0	0	1	0.9129443	-20.920328	115	7	1.1	0.9	6.8700	0.0000	0.0000	0.0000;
	189	3	0.000000	0.000000	0	0	1	1.0	0.0	13.8	7	1.1	0.9	6.8700	0.0000	0.0000	0.0000;
	190	1	33.580000	9.560000	0	0	1	0.9142763	-38.066214	115	6	1.1	0.9	6.8700	0.0000	0.0000	0.0000;
	191	1	14.460000	4.120000	0	0	1	0.937611	-39.16979	115	5	1.1	0.9	6.8700	0.0000	0.0000	0.0000;
	192	1	105.480000	30.060000	0	0	1	0.8701965	-38.672901	115	7	1.1	0.9	6.8700	0.0000	0.0000	0.0000;
	193	1	43.980000	12.540000	0	0	1	0.9034706	-50.116475	115	2	1.1	0.9	6.8700	0.0000	0.0000	0.0000;
	194	1	75.140000	21.420000	0	50	1	0.9373084	-49.426376	115	3	1.1	0.9	6.8700	0.0000	0.0000	0.0000;
	195	1	0.000000	0.000000	0	0	1	0.8985096	-33.449635	115	6	1.1	0.9	6.8700	0.0000	0.0000	0.0000;
	196	2	0.000000	0.000000	0	0	1	0.8985096	-33.449635	13.8	6	1.1	0.9	6.8700	0.0000	0.0000	0.0000;
	197	2	0.000000	0.000000	0	0	1	0.8985096	-33.449635	13.8	6	1.1	0.9	6.8700	0.0000	0.0000	0.0000;
	198	1	10.740000	3.060000	0	0	1	0.9211104	-49.082873	115	2	1.1	0.9	6.8700	0.0000	0.0000	0.0000;
	199	1	8.520000	2.420000	0	0	1	0.936533	-36.849422	115	6	1.1	0.9	6.8700	0.0000	0.0000	0.0000;
	200	1	18.680000	5.320000	0	0	1	0.9210052	-51.16818	115	4	1.1	0.9	6.8700	0.0000	0.0000	0.0000;
];

%% generator data
%	bus	Pg	Qg	Qmax	Qmin	Vg	mBase	status	Pmax	Pmin	Pc1	Pc2	Qc1min	Qc1max	Qc2min	Qc2max	ramp_agc	ramp_10	ramp_30	ramp_q	apf	mu_Pmax	mu_Pmin	mu_Qmax	mu_Qmin
mpc.gen = [
	49	1.36	7.710964	2.11	-0.55	1.04	5.44	1	4.53	1.36	0	0	0	0	0	0	0	0	0	0	0	0.0000	0.0000	0.0000	0.0000;;
	50	1.36	10.166502	2.11	-0.55	1.04	5.44	1	4.53	1.36	0	0	0	0	0	0	0	0	0	0	0	0.0000	0.0000	0.0000	0.0000;;
	51	1.36	6.696843	2.11	-0.55	1.04	5.44	1	4.53	1.36	0	0	0	0	0	0	0	0	0	0	0	0.0000	0.0000	0.0000	0.0000;;
	52	1.36	10.817878	2.11	-0.55	1.04	5.44	1	4.53	1.36	0	0	0	0	0	0	0	0	0	0	0	0.0000	0.0000	0.0000	0.0000;;
	53	2.72	7.095201	4.23	-1.11	1.04	10.88	1	9.07	2.72	0	0	0	0	0	0	0	0	0	0	0	0.0000	0.0000	0.0000	0.0000;;
	65	86.5	34.63719	32.04	-21.66	1.04	180.48	1	86.5	86.5	0	0	0	0	0	0	0	0	0	0	0	0.0000	0.0000	0.0000	0.0000;;
	67	1.41	13.712569	2.19	-0.57	1.04	5.64	1	4.7	1.41	0	0	0	0	0	0	0	0	0	0	0	0.0000	0.0000	0.0000	0.0000;;
	68	8.38	7.476192	13.01	-3.41	1.04	33.5	1	27.92	8.38	0	0	0	0	0	0	0	0	0	0	0	0.0000	0.0000	0.0000	0.0000;;
	69	8.38	20.849221	13.01	-3.41	1.04	33.5	1	27.92	8.38	0	0	0	0	0	0	0	0	0	0	0	0.0000	0.0000	0.0000	0.0000;;
	70	8.38	9.878585	13.01	-3.41	1.04	33.5	1	27.92	8.38	0	0	0	0	0	0	0	0	0	0	0	0.0000	0.0000	0.0000	0.0000;;
	71	8.38	24.369052	13.01	-3.41	1.04	33.5	1	27.92	8.38	0	0	0	0	0	0	0	0	0	0	0	0.0000	0.0000	0.0000	0.0000;;
	72	8.38	26.632647	13.01	-3.41	1.04	33.5	1	27.92	8.38	0	0	0	0	0	0	0	0	0	0	0	0.0000	0.0000	0.0000	0.0000;;
	73	8.38	13.411314	13.01	-3.41	1.04	33.5	1	27.92	8.38	0	0	0	0	0	0	0	0	0	0	0	0.0000	0.0000	0.0000	0.0000;;
	76	1.2	7.202436	2.04	-0.44	1.04	4.8	1	4	1.2	0	0	0	0	0	0	0	0	0	0	0	0.0000	0.0000	0.0000	0.0000;;
	77	0.72	2.575231	1.22	-0.27	1.04	2.88	1	2.4	0.72	0	0	0	0	0	0	0	0	0	0	0	0.0000	0.0000	0.0000	0.0000;;
	78	0	0	9.16	-2	1.04	21.6	0	18	5.4	0	0	0	0	0	0	0	0	0	0	0	0.0000	0.0000	0.0000	0.0000;;
	79	0	0	9.16	-2	1.04	21.6	0	18	5.4	0	0	0	0	0	0	0	0	0	0	0	0.0000	0.0000	0.0000	0.0000;;
	90	0.96	4.805055	1.63	-0.36	1.04	3.84	1	3.2	0.96	0	0	0	0	0	0	0	0	0	0	0	0.0000	0.0000	0.0000	0.0000;;
	91	1.5	21.762802	2.55	-0.55	1.04	6	1	5	1.5	0	0	0	0	0	0	0	0	0	0	0	0.0000	0.0000	0.0000	0.0000;;
	92	0	0	3.21	-0.7	1.04	7.56	0	6.3	1.89	0	0	0	0	0	0	0	0	0	0	0	0.0000	0.0000	0.0000	0.0000;;
	94	5.4	15.759495	8.39	-2.2	1.04	21.6	1	18	5.4	0	0	0	0	0	0	0	0	0	0	0	0.0000	0.0000	0.0000	0.0000;;
	104	67.6	80.36794	21.09	-14.26	1.04	118.8	1	67.6	67.6	0	0	0	0	0	0	0	0	0	0	0	0.0000	0.0000	0.0000	0.0000;;
	105	154.8	123.016487	42.17	-28.51	1.04	237.6	1	154.8	154.8	0	0	0	0	0	0	0	0	0	0	0	0.0000	0.0000	0.0000	0.0000;;
	114	1.4	17.918172	0.36	-0.24	1.04	2.04	1	1.4	1.4	0	0	0	0	0	0	0	0	0	0	0	0.0000	0.0000	0.0000	0.0000;;
	115	133.5	128.33406	31.95	-21.6	1.04	180	1	133.5	133.5	0	0	0	0	0	0	0	0	0	0	0	0.0000	0.0000	0.0000	0.0000;;
	125	39.02	41.677322	60.6	-15.87	1.04	156.06	1	130.05	39.02	0	0	0	0	0	0	0	0	0	0	0	0.0000	0.0000	0.0000	0.0000;;
	126	39.02	67.04273	60.6	-15.87	1.04	156.06	1	130.05	39.02	0	0	0	0	0	0	0	0	0	0	0	0.0000	0.0000	0.0000	0.0000;;
	127	39.02	139.490656	60.6	-15.87	1.04	156.06	1	130.05	39.02	0	0	0	0	0	0	0	0	0	0	0	0.0000	0.0000	0.0000	0.0000;;
	135	133.92	132.220316	208.02	-54.46	1.04	535.68	1	446.4	133.92	0	0	0	0	0	0	0	0	0	0	0	0.0000	0.0000	0.0000	0.0000;;
	136	133.92	159.998924	208.02	-54.46	1.04	535.68	1	446.4	133.92	0	0	0	0	0	0	0	0	0	0	0	0.0000	0.0000	0.0000	0.0000;;
	147	92.4	70.210598	21.41	-14.47	1.04	120.6	1	92.4	92.4	0	0	0	0	0	0	0	0	0	0	0	0.0000	0.0000	0.0000	0.0000;;
	151	1.62	8.753229	2.52	-0.66	1.04	6.48	1	5.4	1.62	0	0	0	0	0	0	0	0	0	0	0	0.0000	0.0000	0.0000	0.0000;;
	152	23.17	38.850272	35.99	-9.42	1.04	92.67	1	77.22	23.17	0	0	0	0	0	0	0	0	0	0	0	0.0000	0.0000	0.0000	0.0000;;
	153	23.17	29.636361	35.99	-9.42	1.04	92.67	1	77.22	23.17	0	0	0	0	0	0	0	0	0	0	0	0.0000	0.0000	0.0000	0.0000;;
	154	23.17	53.212558	35.99	-9.42	1.04	92.67	1	77.22	23.17	0	0	0	0	0	0	0	0	0	0	0	0.0000	0.0000	0.0000	0.0000;;
	155	23.17	54.849688	35.99	-9.42	1.04	92.67	1	77.22	23.17	0	0	0	0	0	0	0	0	0	0	0	0.0000	0.0000	0.0000	0.0000;;
	161	0	0	70.55	-15.38	1.04	166.32	0	138.6	41.58	0	0	0	0	0	0	0	0	0	0	0	0.0000	0.0000	0.0000	0.0000;;
	164	0	0	6.11	-1.33	1.04	14.4	0	12	3.6	0	0	0	0	0	0	0	0	0	0	0	0.0000	0.0000	0.0000	0.0000;;
	165	0	0	13.23	-2.89	1.04	31.2	0	26	7.8	0	0	0	0	0	0	0	0	0	0	0	0.0000	0.0000	0.0000	0.0000;;
	166	0	0	4.78	-1.04	1.04	11.28	0	9.4	2.82	0	0	0	0	0	0	0	0	0	0	0	0.0000	0.0000	0.0000	0.0000;;
	167	2.82	47.083238	4.78	-1.04	1.04	11.28	1	9.4	2.82	0	0	0	0	0	0	0	0	0	0	0	0.0000	0.0000	0.0000	0.0000;;
	168	0	0	4.78	-1.04	1.04	11.28	0	9.4	2.82	0	0	0	0	0	0	0	0	0	0	0	0.0000	0.0000	0.0000	0.0000;;
	169	0	0	4.78	-1.04	1.04	11.28	0	9.4	2.82	0	0	0	0	0	0	0	0	0	0	0	0.0000	0.0000	0.0000	0.0000;;
	170	2.82	24.639853	4.78	-1.04	1.04	11.28	1	9.4	2.82	0	0	0	0	0	0	0	0	0	0	0	0.0000	0.0000	0.0000	0.0000;;
	182	5.25	21.176566	8.16	-2.14	1.04	21	1	17.5	5.25	0	0	0	0	0	0	0	0	0	0	0	0.0000	0.0000	0.0000	0.0000;;
	183	7.98	55.305348	12.4	-3.25	1.04	31.92	1	26.6	7.98	0	0	0	0	0	0	0	0	0	0	0	0.0000	0.0000	0.0000	0.0000;;
	189	2014.553152	702.011962	209.45	-46.67	1.04	682.98	1	569.15	170.75	0	0	0	0	0	0	0	0	0	0	0	0.0000	0.0000	0.0000	0.0000;;
	196	0	0	34.36	-7.49	1.04	81	0	67.5	20.25	0	0	0	0	0	0	0	0	0	0	0	0.0000	0.0000	0.0000	0.0000;;
	197	0	0	34.36	-7.49	1.04	81	0	67.5	20.25	0	0	0	0	0	0	0	0	0	0	0	0.0000	0.0000	0.0000	0.0000;;
];

%% branch data
%	fbus	tbus	r	x	b	rateA	rateB	rateC	ratio	angle	status	angmin	angmax	Pf	Qf	Pt	Qt	mu_Sf	mu_St	mu_angmin	mu_angmax
mpc.branch = [
	2	1	0.000673	0.003339	0	100	0	0	0	0	1	0	0	-7.3900	-2.1000	7.3900	2.1100	0.0000	0.0000	0.0000	0.0000;
	1	119	0.018542	0.119758	0.02285	221.1	0	0	0	0	1	0	0	12.2500	-0.5700	-12.2200	-1.6300	0.0000	0.0000	0.0000	0.0000;
	124	1	0.005615	0.036268	0.00692	221.1	0	0	0	0	1	0	0	40.1300	7.9400	-40.0400	-8.0800	0.0000	0.0000	0.0000	0.0000;
	193	1	0.004258	0.027501	0.00525	221.1	0	0	0	0	1	0	0	-20.3900	-6.9600	20.4100	6.5400	0.0000	0.0000	0.0000	0.0000;
	4	3	0.000573	0.003303	0	100	0	0	0	0	1	0	0	-1.7000	-0.4800	1.7000	0.4800	0.0000	0.0000	0.0000	0.0000;
	57	3	0.008505	0.058098	0.00988	221.1	0	0	0	0	1	0	0	-13.5600	-1.8900	13.5800	0.9400	0.0000	0.0000	0.0000	0.0000;
	3	137	0.005889	0.038035	0.00726	221.1	0	0	0	0	1	0	0	-15.2700	-1.4200	15.2900	0.7400	0.0000	0.0000	0.0000	0.0000;
	6	5	0.000694	0.003337	0	100	0	0	0	0	1	0	0	-7.9500	-2.2600	7.9500	2.2700	0.0000	0.0000	0.0000	0.0000;
	48	5	0.006246	0.043513	0.00711	221.1	0	0	0	0	1	0	0	-27.2200	-1.3800	27.2700	0.9200	0.0000	0.0000	0.0000	0.0000;
	5	64	0.007877	0.054875	0.00897	221.1	0	0	0	0	1	0	0	-35.2100	-3.1900	35.3000	2.8600	0.0000	0.0000	0.0000	0.0000;
	8	7	0.000634	0.003189	0	100	0	0	0	0	1	0	0	-23.7400	-6.7700	23.7400	6.7800	0.0000	0.0000	0.0000	0.0000;
	7	86	0.003756	0.024259	0.00463	221.1	0	0	0	0	1	0	0	-12.2900	-3.2900	12.2900	2.8600	0.0000	0.0000	0.0000	0.0000;
	7	101	0.003597	0.023232	0.00443	221.1	0	0	0	0	1	0	0	-24.5900	-6.1400	24.6100	5.8300	0.0000	0.0000	0.0000	0.0000;
	7	148	0.008667	0.05598	0.01068	221.1	0	0	0	0	1	0	0	13.1400	2.6500	-13.1200	-3.6500	0.0000	0.0000	0.0000	0.0000;
	10	9	0.000585	0.003967	0	100	0	0	0	0	1	0	0	-42.6800	-12.1600	42.6900	12.2400	0.0000	0.0000	0.0000	0.0000;
	9	124	0.008069	0.055123	0.00938	221.1	0	0	0	0	1	0	0	-39.5800	-9.8300	39.7000	9.7400	0.0000	0.0000	0.0000	0.0000;
	131	9	0.004139	0.026732	0.0051	221.1	0	0	0	0	1	0	0	-0.6800	0.5200	0.6800	-1.0400	0.0000	0.0000	0.0000	0.0000;
	9	141	0.004446	0.03097	0.00506	221.1	0	0	0	0	1	0	0	3.0500	0.6700	-3.0500	-1.1800	0.0000	0.0000	0.0000	0.0000;
	9	193	0.003695	0.025244	0.00429	221.1	0	0	0	0	1	0	0	-6.8500	-2.0300	6.8500	1.6000	0.0000	0.0000	0.0000	0.0000;
	12	11	0.000534	0.003533	0	100	0	0	0	0	1	0	0	-0.3000	-0.0900	0.3000	0.0900	0.0000	0.0000	0.0000	0.0000;
	13	11	0.000619	0.003606	0	100	0	0	0	0	1	0	0	-2.5200	-0.7200	2.5200	0.7200	0.0000	0.0000	0.0000	0.0000;
	11	15	0.010408	0.06722	0.01282	221.1	0	0	0	0	1	0	0	-14.5200	-2.5400	14.5400	1.2600	0.0000	0.0000	0.0000	0.0000;
	11	93	0.018394	0.128141	0.02095	221.1	0	0	0	0	1	0	0	1.4400	-1.6200	-1.4400	-0.6800	0.0000	0.0000	0.0000	0.0000;
	158	11	0.008519	0.058199	0.0099	221.1	0	0	0	0	1	0	0	-10.2400	-4.3700	10.2400	3.3500	0.0000	0.0000	0.0000	0.0000;
	15	14	0.000637	0.027526	0	300	0	0	1	0	1	0	0	-59.3100	18.9400	59.3300	-17.9700	0.0000	0.0000	0.0000	0.0000;
	14	121	0.007013	0.050098	0.09134	402.36	0	0	0	0	1	0	0	-135.7000	25.2800	136.9400	-26.3500	0.0000	0.0000	0.0000	0.0000;
	14	149	0.009133	0.065244	0.11895	402.36	0	0	0	0	1	0	0	76.3700	-7.3200	-75.8800	-2.1100	0.0000	0.0000	0.0000	0.0000;
	16	15	0.000553	0.0032	0	100	0	0	0	0	1	0	0	-44.7600	-12.7600	44.7700	12.8200	0.0000	0.0000	0.0000	0.0000;
	18	17	0.000503	0.003926	0	100	0	0	0	0	1	0	0	-0.7100	-0.2000	0.7100	0.2000	0.0000	0.0000	0.0000	0.0000;
	19	17	0.000514	0.003079	0	100	0	0	0	0	1	0	0	-0.7700	-0.2200	0.7700	0.2200	0.0000	0.0000	0.0000	0.0000;
	20	17	0.000623	0.003339	0	100	0	0	0	0	1	0	0	-1.1300	-0.3200	1.1300	0.3200	0.0000	0.0000	0.0000	0.0000;
	21	17	0.00062	0.00394	0	100	0	0	0	0	1	0	0	-4.6100	-1.3100	4.6100	1.3100	0.0000	0.0000	0.0000	0.0000;
	109	17	0.009789	0.068198	0.01115	221.1	0	0	0	0	1	0	0	31.7400	-1.9600	-31.6500	1.4400	0.0000	0.0000	0.0000	0.0000;
	17	120	0.010316	0.070473	0.01199	221.1	0	0	0	0	1	0	0	24.4200	-3.5000	-24.3600	2.6500	0.0000	0.0000	0.0000	0.0000;
	23	22	0.000616	0.003222	0	100	0	0	0	0	1	0	0	-1.4100	-0.4000	1.4100	0.4000	0.0000	0.0000	0.0000	0.0000;
	24	22	0.000687	0.003067	0	100	0	0	0	0	1	0	0	-2.4000	-0.6800	2.4000	0.6800	0.0000	0.0000	0.0000	0.0000;
	22	27	0.011379	0.073494	0.01402	221.1	0	0	0	0	1	0	0	-1.4100	-2.0700	1.4100	0.5400	0.0000	0.0000	0.0000	0.0000;
	158	22	0.012701	0.086769	0.01476	221.1	0	0	0	0	1	0	0	2.4000	-2.5900	-2.4000	0.9900	0.0000	0.0000	0.0000	0.0000;
	26	25	0.00061	0.003071	0	100	0	0	0	0	1	0	0	-1.3500	-0.3900	1.3500	0.3900	0.0000	0.0000	0.0000	0.0000;
	25	64	0.007643	0.053244	0.0087	221.1	0	0	0	0	1	0	0	-50.9200	9.4100	51.1100	-9.0400	0.0000	0.0000	0.0000	0.0000;
	199	25	0.009909	0.064003	0.01221	221.1	0	0	0	0	1	0	0	-49.3300	9.9600	49.5700	-9.8000	0.0000	0.0000	0.0000	0.0000;
	28	27	0.000587	0.003964	0	100	0	0	0	0	1	0	0	-2.3300	-0.6700	2.3300	0.6700	0.0000	0.0000	0.0000	0.0000;
	27	93	0.025172	0.175362	0.02867	221.1	0	0	0	0	1	0	0	-2.9600	-1.7500	2.9600	-1.3700	0.0000	0.0000	0.0000	0.0000;
	27	158	0.020429	0.131945	0.02517	221.1	0	0	0	0	1	0	0	-0.7800	0.5400	0.7800	-3.2900	0.0000	0.0000	0.0000	0.0000;
	30	29	0.000694	0.003131	0	100	0	0	0	0	1	0	0	-59.0900	-16.8400	59.1100	16.9500	0.0000	0.0000	0.0000	0.0000;
	124	29	0.005561	0.038742	0.00633	221.1	0	0	0	0	1	0	0	36.4400	10.6100	-36.3600	-10.7300	0.0000	0.0000	0.0000	0.0000;
	29	140	0.007895	0.055004	0.00899	221.1	0	0	0	0	1	0	0	-22.7500	-6.2200	22.7900	5.5800	0.0000	0.0000	0.0000	0.0000;
	32	31	0.000667	0.003884	0	100	0	0	0	0	1	0	0	-0.5100	-0.1500	0.5100	0.1500	0.0000	0.0000	0.0000	0.0000;
	33	31	0.000528	0.003639	0	100	0	0	0	0	1	0	0	-6.4400	-1.8400	6.4400	1.8400	0.0000	0.0000	0.0000	0.0000;
	177	31	0.008406	0.05856	0.00957	221.1	0	0	0	0	1	0	0	13.4300	8.7800	-13.4100	-9.6400	0.0000	0.0000	0.0000	0.0000;
	192	31	0.008088	0.05525	0.0094	221.1	0	0	0	0	1	0	0	-6.4500	-8.5800	6.4600	7.6600	0.0000	0.0000	0.0000	0.0000;
	35	34	0.000575	0.003674	0	100	0	0	0	0	1	0	0	-20.7600	-5.9200	20.7600	5.9300	0.0000	0.0000	0.0000	0.0000;
	34	54	0.006268	0.042819	0.00729	221.1	0	0	0	0	1	0	0	-37.2300	-6.2100	37.3100	6.0000	0.0000	0.0000	0.0000	0.0000;
	34	137	0.006911	0.044639	0.00852	221.1	0	0	0	0	1	0	0	16.4600	0.2700	-16.4500	-1.0700	0.0000	0.0000	0.0000	0.0000;
	37	36	0.000552	0.003328	0	100	0	0	0	0	1	0	0	-3.5700	-1.0200	3.5700	1.0200	0.0000	0.0000	0.0000	0.0000;
	38	36	0.00067	0.003511	0	100	0	0	0	0	1	0	0	-29.8100	-8.5000	29.8100	8.5300	0.0000	0.0000	0.0000	0.0000;
	58	36	0.010889	0.07439	0.01266	221.1	0	0	0	0	1	0	0	4.9900	8.1600	-4.9800	-9.4300	0.0000	0.0000	0.0000	0.0000;
	83	36	0.009615	0.066986	0.01095	221.1	0	0	0	0	1	0	0	28.4700	-0.5300	-28.4000	-0.1100	0.0000	0.0000	0.0000	0.0000;
	40	39	0.000505	0.003103	0	100	0	0	0	0	1	0	0	-2.0400	-0.5800	2.0400	0.5800	0.0000	0.0000	0.0000	0.0000;
	39	85	0.008702	0.060625	0.00991	221.1	0	0	0	0	1	0	0	-17.6700	2.9300	17.6900	-3.7800	0.0000	0.0000	0.0000	0.0000;
	159	39	0.007332	0.05108	0.00835	221.1	0	0	0	0	1	0	0	-8.2100	4.7900	8.2200	-5.6200	0.0000	0.0000	0.0000	0.0000;
	41	100	0.004595	0.029676	0.00566	221.1	0	0	0	0	1	0	0	-12.2600	-31.2300	12.3000	30.9000	0.0000	0.0000	0.0000	0.0000;
	41	163	0.003165	0.021623	0.00368	221.1	0	0	0	0	1	0	0	-0.7700	14.9900	0.7700	-15.3400	0.0000	0.0000	0.0000	0.0000;
	41	180	0.009408	0.060766	0.01159	221.1	0	0	0	0	1	0	0	-25.3100	5.3200	25.3700	-6.2100	0.0000	0.0000	0.0000	0.0000;
	44	42	0.012256	0.085383	0.01396	221.1	0	0	0	0	1	0	0	13.8900	-5.2100	-13.8600	3.9100	0.0000	0.0000	0.0000	0.0000;
	181	42	0.008008	0.05579	0.00912	221.1	0	0	0	0	1	0	0	-3.2400	5.9900	3.2500	-6.9300	0.0000	0.0000	0.0000	0.0000;
	43	84	0.007509	0.051295	0.00873	221.1	0	0	0	0	1	0	0	-20.0400	-1.4600	20.0700	0.7500	0.0000	0.0000	0.0000	0.0000;
	43	132	0.011052	0.075503	0.01285	221.1	0	0	0	0	1	0	0	17.9500	0.8600	-17.9200	-1.9500	0.0000	0.0000	0.0000	0.0000;
	44	200	0.014813	0.101195	0.01722	221.1	0	0	0	0	1	0	0	-18.0300	4.0300	18.0800	-5.5100	0.0000	0.0000	0.0000	0.0000;
	46	45	0.000936	0.049195	0	160	0	0	1	0	1	0	0	-31.3900	-0.4900	31.4000	0.9500	0.0000	0.0000	0.0000	0.0000;
	55	45	0.002593	0.018527	0.03378	402.36	0	0	0	0	1	0	0	-23.9400	-6.0600	23.9500	2.5200	0.0000	0.0000	0.0000	0.0000;
	102	45	0.0029	0.020715	0.03777	402.36	0	0	0	0	1	0	0	18.4200	-8.8200	-18.4100	4.8300	0.0000	0.0000	0.0000	0.0000;
	45	187	0.003474	0.024821	0.04525	402.36	0	0	0	0	1	0	0	-36.9400	-8.3000	36.9900	3.7300	0.0000	0.0000	0.0000	0.0000;
	61	46	0.006971	0.048561	0.00794	221.1	0	0	0	0	1	0	0	-8.8600	-4.8100	8.8700	4.0000	0.0000	0.0000	0.0000	0.0000;
	122	46	0.010129	0.065419	0.01248	221.1	0	0	0	0	1	0	0	-16.1500	4.1400	16.1800	-5.3100	0.0000	0.0000	0.0000	0.0000;
	47	54	0.006678	0.045623	0.00776	221.1	0	0	0	0	1	0	0	12.6200	1.7800	-12.6100	-2.5400	0.0000	0.0000	0.0000	0.0000;
	47	66	0.007339	0.047401	0.00904	221.1	0	0	0	0	1	0	0	-14.1700	-2.2200	14.1800	1.3300	0.0000	0.0000	0.0000	0.0000;
	49	48	0.027149	0.532021	0	28.9	0	0	1	0	1	0	0	1.3600	0.8800	-1.3600	-0.8700	0.0000	0.0000	0.0000	0.0000;
	50	48	0.021719	0.404167	0	28.7	0	0	1	0	1	0	0	1.3600	1.1800	-1.3600	-1.1700	0.0000	0.0000	0.0000	0.0000;
	51	48	0.027149	0.612711	0	24.3	0	0	1	0	1	0	0	1.3600	0.7700	-1.3600	-0.7500	0.0000	0.0000	0.0000	0.0000;
	52	48	0.021719	0.379817	0	24.3	0	0	1	0	1	0	0	1.3600	1.2500	-1.3600	-1.2400	0.0000	0.0000	0.0000	0.0000;
	53	48	0.02121	0.576549	0	35.3	0	0	1	0	1	0	0	2.7200	0.7900	-2.7200	-0.7500	0.0000	0.0000	0.0000	0.0000;
	48	74	0.007959	0.054369	0.00925	221.1	0	0	0	0	1	0	0	33.5600	5.6500	-33.4700	-6.0500	0.0000	0.0000	0.0000	0.0000;
	54	66	0.007051	0.045544	0.00869	221.1	0	0	0	0	1	0	0	-27.3600	-4.2100	27.4100	3.6000	0.0000	0.0000	0.0000	0.0000;
	56	55	0.005152	0.124653	0	160	0	0	1	0	1	0	0	-6.6000	-0.2300	6.6000	0.2800	0.0000	0.0000	0.0000	0.0000;
	81	55	0.005467	0.039054	0.0712	402.36	0	0	0	0	1	0	0	-74.8400	10.5800	75.1400	-16.1400	0.0000	0.0000	0.0000	0.0000;
	55	102	0.001246	0.008902	0.01623	402.36	0	0	0	0	1	0	0	-92.5200	6.4200	92.6200	-7.4500	0.0000	0.0000	0.0000	0.0000;
	55	112	0.004166	0.029763	0.05426	402.36	0	0	0	0	1	0	0	6.9100	7.2200	-6.9000	-12.9900	0.0000	0.0000	0.0000	0.0000;
	55	128	0.003415	0.024395	0.04448	402.36	0	0	0	0	1	0	0	27.8100	8.2900	-27.7800	-12.8500	0.0000	0.0000	0.0000	0.0000;
	56	103	0.004282	0.02983	0.00488	221.1	0	0	0	0	1	0	0	5.2900	-0.1500	-5.2900	-0.3700	0.0000	0.0000	0.0000	0.0000;
	57	159	0.00752	0.051369	0.00874	221.1	0	0	0	0	1	0	0	10.7400	1.0800	-10.7400	-1.9500	0.0000	0.0000	0.0000	0.0000;
	95	58	0.009836	0.063526	0.01212	221.1	0	0	0	0	1	0	0	-0.7300	16.4500	0.7500	-17.5900	0.0000	0.0000	0.0000	0.0000;
	177	58	0.014049	0.095972	0.01633	221.1	0	0	0	0	1	0	0	10.0000	-9.8000	-9.9800	8.2300	0.0000	0.0000	0.0000	0.0000;
	59	119	0.011209	0.072397	0.01381	221.1	0	0	0	0	1	0	0	5.3400	1.9700	-5.3300	-3.3800	0.0000	0.0000	0.0000	0.0000;
	59	139	0.009665	0.062426	0.01191	221.1	0	0	0	0	1	0	0	-10.0700	-3.3200	10.0800	2.1500	0.0000	0.0000	0.0000	0.0000;
	60	97	0.012274	0.079279	0.01512	221.1	0	0	0	0	1	0	0	34.9900	-2.5300	-34.8500	1.8500	0.0000	0.0000	0.0000	0.0000;
	134	60	0.009007	0.062749	0.01026	221.1	0	0	0	0	1	0	0	38.9200	-1.6400	-38.7900	1.4500	0.0000	0.0000	0.0000	0.0000;
	61	103	0.006539	0.045556	0.00745	221.1	0	0	0	0	1	0	0	-11.6900	-1.0500	11.7000	0.3100	0.0000	0.0000	0.0000	0.0000;
	159	62	0.008634	0.058979	0.01003	221.1	0	0	0	0	1	0	0	17.5600	-3.2300	-17.5300	2.3500	0.0000	0.0000	0.0000	0.0000;
	160	62	0.007628	0.053144	0.00869	221.1	0	0	0	0	1	0	0	3.8800	7.5700	-3.8700	-8.4500	0.0000	0.0000	0.0000	0.0000;
	63	66	0.011949	0.083244	0.01361	221.1	0	0	0	0	1	0	0	-8.1500	3.8500	8.1600	-5.2600	0.0000	0.0000	0.0000	0.0000;
	63	184	0.017963	0.116023	0.02214	221.1	0	0	0	0	1	0	0	0.1700	-6.1300	-0.1600	3.7300	0.0000	0.0000	0.0000	0.0000;
	65	64	0.00128	0.10157	0	195.5	0	0	1	0	1	0	0	86.5000	0.8400	-86.4100	6.1800	0.0000	0.0000	0.0000	0.0000;
	67	66	0.020951	0.144786	0	30	0	0	1	0	1	0	0	1.4100	-0.5700	-1.4100	0.5700	0.0000	0.0000	0.0000	0.0000;
	68	66	0.00689	0.264997	0	73	0	0	1	0	1	0	0	8.3800	-0.5500	-8.3800	0.7200	0.0000	0.0000	0.0000	0.0000;
	69	66	0.00441	0.09499	0	70.5	0	0	1	0	1	0	0	8.3800	-1.5300	-8.3800	1.5900	0.0000	0.0000	0.0000	0.0000;
	70	66	0.00689	0.199449	0	70.5	0	0	1	0	1	0	0	8.3800	-0.7800	-8.3800	0.9100	0.0000	0.0000	0.0000	0.0000;
	71	66	0.003528	0.081544	0	68	0	0	1	0	1	0	0	8.3800	-1.7000	-8.3800	1.7600	0.0000	0.0000	0.0000	0.0000;
	72	66	0.003528	0.074599	0	68	0	0	1	0	1	0	0	8.3800	-1.8600	-8.3800	1.9100	0.0000	0.0000	0.0000	0.0000;
	73	66	0.00689	0.146423	0	65	0	0	1	0	1	0	0	8.3800	-1.1100	-8.3800	1.2000	0.0000	0.0000	0.0000	0.0000;
	66	158	0.004993	0.032251	0.00615	221.1	0	0	0	0	1	0	0	1.9200	-8.3400	-1.9200	7.6900	0.0000	0.0000	0.0000	0.0000;
	74	190	0.008894	0.06076	0.01034	221.1	0	0	0	0	1	0	0	14.7100	0.7000	-14.6900	-1.6700	0.0000	0.0000	0.0000	0.0000;
	76	75	0.038464	0.784328	0	24.3	0	0	1	0	1	0	0	1.2000	1.4100	-1.2000	-1.3800	0.0000	0.0000	0.0000	0.0000;
	77	75	0.08013	2.192105	0	7.4	0	0	1	0	1	0	0	0.7200	0.5000	-0.7200	-0.4900	0.0000	0.0000	0.0000	0.0000;
	78	75	0.008544	0.181406	0	65	0	0	1	0	1	0	0	0.0000	0.0000	0.0000	0.0000	0.0000	0.0000	0.0000	0.0000;
	79	75	0.01068	0.277774	0	62.1	0	0	1	0	1	0	0	0.0000	0.0000	0.0000	0.0000	0.0000	0.0000	0.0000	0.0000;
	108	75	0.010988	0.070969	0.01354	221.1	0	0	0	0	1	0	0	-12.6100	-2.5700	12.6300	1.2500	0.0000	0.0000	0.0000	0.0000;
	75	157	0.013487	0.087112	0.01662	221.1	0	0	0	0	1	0	0	-14.3100	-0.4000	14.3400	-1.1900	0.0000	0.0000	0.0000	0.0000;
	80	100	0.021463	0.149525	0.02444	221.1	0	0	0	0	1	0	0	6.6400	-7.8800	-6.6200	5.2900	0.0000	0.0000	0.0000	0.0000;
	80	143	0.020594	0.14347	0.02345	221.1	0	0	0	0	1	0	0	-8.1100	7.4600	8.1400	-9.8200	0.0000	0.0000	0.0000	0.0000;
	82	81	0.00097	0.042371	0	250	0	0	1	0	1	0	0	-36.8000	-5.8400	36.8100	6.3800	0.0000	0.0000	0.0000	0.0000;
	81	178	0.006598	0.047137	0.08594	402.36	0	0	0	0	1	0	0	38.0300	-16.9700	-37.9300	8.3700	0.0000	0.0000	0.0000	0.0000;
	82	195	0.003845	0.026265	0.00447	221.1	0	0	0	0	1	0	0	29.2000	3.6700	-29.1700	-3.9300	0.0000	0.0000	0.0000	0.0000;
	83	146	0.005382	0.036767	0.00626	221.1	0	0	0	0	1	0	0	-57.1800	1.5200	57.3500	-1.0600	0.0000	0.0000	0.0000	0.0000;
	83	186	0.00792	0.055174	0.00902	221.1	0	0	0	0	1	0	0	25.5700	-1.8800	-25.5200	1.2700	0.0000	0.0000	0.0000	0.0000;
	84	113	0.006652	0.04544	0.00773	221.1	0	0	0	0	1	0	0	-23.8200	-1.8200	23.8600	1.2700	0.0000	0.0000	0.0000	0.0000;
	85	120	0.007786	0.050291	0.00959	221.1	0	0	0	0	1	0	0	-22.5300	2.4000	22.5700	-3.1600	0.0000	0.0000	0.0000	0.0000;
	86	101	0.00512	0.033072	0.00631	221.1	0	0	0	0	1	0	0	-8.2600	-2.2600	8.2700	1.6400	0.0000	0.0000	0.0000	0.0000;
	142	86	0.003387	0.023141	0.00394	221.1	0	0	0	0	1	0	0	1.0500	-1.3100	-1.0500	0.9100	0.0000	0.0000	0.0000	0.0000;
	86	193	0.006606	0.042664	0.00814	221.1	0	0	0	0	1	0	0	-11.2300	-3.8500	11.2400	3.0700	0.0000	0.0000	0.0000	0.0000;
	88	87	0.000832	0.034189	0	350	0	0	1	0	1	0	0	-65.6700	-2.1600	65.7100	3.5300	0.0000	0.0000	0.0000	0.0000;
	149	87	0.001621	0.011579	0.02111	402.36	0	0	0	0	1	0	0	65.7700	1.7200	-65.7100	-3.5300	0.0000	0.0000	0.0000	0.0000;
	88	150	0.00557	0.035973	0.00686	221.1	0	0	0	0	1	0	0	-25.5300	-4.6400	25.5700	4.1300	0.0000	0.0000	0.0000	0.0000;
	176	88	0.003859	0.024922	0.00475	221.1	0	0	0	0	1	0	0	-29.0800	-6.9300	29.1100	6.6300	0.0000	0.0000	0.0000	0.0000;
	88	194	0.004258	0.029088	0.00495	221.1	0	0	0	0	1	0	0	12.7600	-13.9000	-12.7400	13.4600	0.0000	0.0000	0.0000	0.0000;
	90	89	0.0601	2.279922	0	8.6	0	0	1	0	1	0	0	0.9600	0.1300	-0.9600	-0.1100	0.0000	0.0000	0.0000	0.0000;
	91	89	0.024614	0.503424	0	32	0	0	1	0	1	0	0	1.5000	0.5900	-1.5000	-0.5800	0.0000	0.0000	0.0000	0.0000;
	92	89	0.019539	0.36204	0	35.3	0	0	1	0	1	0	0	0.0000	0.0000	0.0000	0.0000	0.0000	0.0000	0.0000	0.0000;
	89	95	0.008734	0.056409	0.01076	221.1	0	0	0	0	1	0	0	2.2900	-16.5000	-2.2700	15.4700	0.0000	0.0000	0.0000	0.0000;
	188	89	0.00805	0.051996	0.00992	221.1	0	0	0	0	1	0	0	62.9700	1.5400	-62.6800	-0.7100	0.0000	0.0000	0.0000	0.0000;
	94	93	0.01068	0.280602	0	62.1	0	0	1	0	1	0	0	5.4000	-2.2000	-5.4000	2.2900	0.0000	0.0000	0.0000	0.0000;
	93	191	0.022088	0.142662	0.02722	221.1	0	0	0	0	1	0	0	0.8200	-1.1100	-0.8200	-1.8700	0.0000	0.0000	0.0000	0.0000;
	122	96	0.01062	0.073986	0.01209	221.1	0	0	0	0	1	0	0	28.5100	-5.5400	-28.4200	4.8000	0.0000	0.0000	0.0000	0.0000;
	96	143	0.015858	0.102423	0.01954	221.1	0	0	0	0	1	0	0	35.1000	-3.1300	-34.9200	2.1900	0.0000	0.0000	0.0000	0.0000;
	96	188	0.010903	0.070421	0.01343	221.1	0	0	0	0	1	0	0	-9.6300	-2.5200	9.6400	1.1300	0.0000	0.0000	0.0000	0.0000;
	97	200	0.01318	0.085125	0.01624	221.1	0	0	0	0	1	0	0	27.5200	-3.9400	-27.4300	2.8500	0.0000	0.0000	0.0000	0.0000;
	99	98	0.000643	0.030516	0	250	0	0	1	0	1	0	0	-50.5900	-12.6800	50.6100	13.4700	0.0000	0.0000	0.0000	0.0000;
	98	123	0.0047	0.033574	0.06121	402.36	0	0	0	0	1	0	0	-50.6100	-13.4700	50.7200	7.8400	0.0000	0.0000	0.0000	0.0000;
	99	142	0.007605	0.052982	0.00866	221.1	0	0	0	0	1	0	0	38.4200	9.2100	-38.3100	-9.3100	0.0000	0.0000	0.0000	0.0000;
	100	174	0.010698	0.074531	0.01218	221.1	0	0	0	0	1	0	0	-20.6500	12.4200	20.7100	-13.3700	0.0000	0.0000	0.0000	0.0000;
	100	179	0.007093	0.049413	0.00808	221.1	0	0	0	0	1	0	0	-32.9600	24.5800	33.0700	-24.7100	0.0000	0.0000	0.0000	0.0000;
	100	184	0.012745	0.08879	0.01451	221.1	0	0	0	0	1	0	0	10.5500	5.2900	-10.5300	-6.7800	0.0000	0.0000	0.0000	0.0000;
	110	101	0.00196	0.012657	0.00241	221.1	0	0	0	0	1	0	0	-1.0100	0.5000	1.0100	-0.7500	0.0000	0.0000	0.0000	0.0000;
	101	117	0.005245	0.035833	0.0061	221.1	0	0	0	0	1	0	0	-37.4300	-6.1200	37.5000	5.9900	0.0000	0.0000	0.0000	0.0000;
	101	141	0.003144	0.020305	0.00387	221.1	0	0	0	0	1	0	0	3.0200	-0.7500	-3.0200	0.3500	0.0000	0.0000	0.0000	0.0000;
	103	102	0.001709	0.054578	0	250	0	0	1	0	1	0	0	-33.2200	-1.3300	33.2400	1.9000	0.0000	0.0000	0.0000	0.0000;
	104	102	0.0021	0.087749	0	130	0	0	1	0	1	0	0	67.6000	3.1000	-67.5100	0.6200	0.0000	0.0000	0.0000	0.0000;
	105	102	0.00097	0.059419	0	260	0	0	1	0	1	0	0	154.8000	8.2900	-154.5800	4.9100	0.0000	0.0000	0.0000	0.0000;
	102	128	0.0027	0.019292	0.03517	402.36	0	0	0	0	1	0	0	77.8200	8.8500	-77.6600	-11.5200	0.0000	0.0000	0.0000	0.0000;
	103	106	0.007749	0.053987	0.00883	221.1	0	0	0	0	1	0	0	26.8200	1.3900	-26.7600	-1.9700	0.0000	0.0000	0.0000	0.0000;
	130	106	0.006991	0.047761	0.00813	221.1	0	0	0	0	1	0	0	-24.6700	-1.9800	24.7100	1.3900	0.0000	0.0000	0.0000	0.0000;
	107	113	0.006748	0.046101	0.00784	221.1	0	0	0	0	1	0	0	-26.6500	-7.5000	26.7000	7.0300	0.0000	0.0000	0.0000	0.0000;
	107	129	0.005168	0.035307	0.00601	221.1	0	0	0	0	1	0	0	-32.3600	-5.4300	32.4100	5.1700	0.0000	0.0000	0.0000	0.0000;
	192	107	0.003939	0.025441	0.00485	221.1	0	0	0	0	1	0	0	-6.4500	1.5600	6.4500	-2.0500	0.0000	0.0000	0.0000	0.0000;
	108	198	0.024792	0.160126	0.03055	221.1	0	0	0	0	1	0	0	3.1900	-0.1200	-3.1900	-3.0700	0.0000	0.0000	0.0000	0.0000;
	186	109	0.008774	0.059942	0.0102	221.1	0	0	0	0	1	0	0	37.0100	-0.7900	-36.9000	0.4900	0.0000	0.0000	0.0000	0.0000;
	110	193	0.003444	0.022243	0.00424	221.1	0	0	0	0	1	0	0	-9.8400	-3.5900	9.8500	3.1800	0.0000	0.0000	0.0000	0.0000;
	163	111	0.005281	0.034111	0.00651	221.1	0	0	0	0	1	0	0	8.1600	1.0400	-8.1600	-1.7200	0.0000	0.0000	0.0000	0.0000;
	111	175	0.00795	0.055386	0.00905	221.1	0	0	0	0	1	0	0	-0.6600	-0.7900	0.6600	-0.1900	0.0000	0.0000	0.0000	0.0000;
	113	112	0.002077	0.058615	0	350	0	0	1	0	1	0	0	-90.4800	-16.1700	90.6500	20.9200	0.0000	0.0000	0.0000	0.0000;
	114	112	0.06	0.434013	0	20	0	0	1	0	1	0	0	1.4000	0.3600	-1.4000	-0.3500	0.0000	0.0000	0.0000	0.0000;
	115	112	0.00128	0.062771	0	200	0	0	1	0	1	0	0	133.5000	12.6000	-133.2900	-2.1600	0.0000	0.0000	0.0000	0.0000;
	128	112	0.001295	0.009255	0.01687	402.36	0	0	0	0	1	0	0	-50.9000	3.8300	50.9400	-5.4100	0.0000	0.0000	0.0000	0.0000;
	113	192	0.005418	0.034995	0.00668	221.1	0	0	0	0	1	0	0	39.9300	7.8800	-39.8400	-8.0200	0.0000	0.0000	0.0000	0.0000;
	117	116	0.000517	0.034943	0	300	0	0	1	0	1	0	0	-70.9800	-17.5200	71.0100	19.3200	0.0000	0.0000	0.0000	0.0000;
	133	116	0.00389	0.027793	0.05067	402.36	0	0	0	0	1	0	0	71.2000	15.3500	-71.0100	-19.3200	0.0000	0.0000	0.0000	0.0000;
	117	132	0.011912	0.082984	0.01357	221.1	0	0	0	0	1	0	0	9.0500	4.4200	-9.0400	-5.7300	0.0000	0.0000	0.0000	0.0000;
	117	162	0.01617	0.104442	0.01993	221.1	0	0	0	0	1	0	0	-9.6500	-2.5900	9.6700	0.6100	0.0000	0.0000	0.0000	0.0000;
	131	118	0.00718	0.046377	0.00885	221.1	0	0	0	0	1	0	0	-29.5700	-9.1400	29.6400	8.6500	0.0000	0.0000	0.0000	0.0000;
	118	134	0.011598	0.0808	0.01321	221.1	0	0	0	0	1	0	0	-35.7600	-7.0800	35.9100	6.7100	0.0000	0.0000	0.0000	0.0000;
	118	198	0.009487	0.064809	0.01103	221.1	0	0	0	0	1	0	0	2.1800	-2.6900	-2.1800	1.5400	0.0000	0.0000	0.0000	0.0000;
	122	121	0.000786	0.063023	0	200	0	0	1	0	1	0	0	-27.7900	-3.0000	27.8000	3.4500	0.0000	0.0000	0.0000	0.0000;
	121	178	0.008903	0.063604	0.11596	402.36	0	0	0	0	1	0	0	68.4200	-14.6400	-68.0300	4.8500	0.0000	0.0000	0.0000	0.0000;
	187	121	0.001063	0.007593	0.01384	402.36	0	0	0	0	1	0	0	233.7000	-35.1200	-233.1500	37.5300	0.0000	0.0000	0.0000	0.0000;
	124	123	0.000329	0.017481	0	400	0	0	1	0	1	0	0	-160.2500	-39.2400	160.3400	43.7800	0.0000	0.0000	0.0000	0.0000;
	125	123	0.00448	0.104562	0	170	0	0	1	0	1	0	0	39.0200	7.2400	-38.9500	-5.7200	0.0000	0.0000	0.0000	0.0000;
	126	123	0.00148	0.066043	0	170	0	0	1	0	1	0	0	39.0200	12.5500	-39.0000	-11.5200	0.0000	0.0000	0.0000	0.0000;
	127	123	0.001	0.031691	0	170	0	0	1	0	1	0	0	39.0200	25.9900	-39.0000	-25.3500	0.0000	0.0000	0.0000	0.0000;
	123	133	0.001459	0.010423	0.019	402.36	0	0	0	0	1	0	0	-76.3800	-6.4500	76.4600	4.9900	0.0000	0.0000	0.0000	0.0000;
	156	123	0.001117	0.007981	0.01455	402.36	0	0	0	0	1	0	0	17.7300	1.0600	-17.7200	-2.5800	0.0000	0.0000	0.0000	0.0000;
	124	193	0.006577	0.04582	0.00749	221.1	0	0	0	0	1	0	0	43.9700	10.9600	-43.8400	-10.8400	0.0000	0.0000	0.0000	0.0000;
	129	128	0.000753	0.044453	0	250	0	0	1	0	1	0	0	-109.6600	-27.1900	109.7500	32.6400	0.0000	0.0000	0.0000	0.0000;
	128	133	0.009554	0.068257	0.12444	402.36	0	0	0	0	1	0	0	46.6000	-12.1000	-46.4000	0.2100	0.0000	0.0000	0.0000	0.0000;
	130	144	0.022678	0.157988	0.02583	221.1	0	0	0	0	1	0	0	20.2700	0.7200	-20.1800	-2.8300	0.0000	0.0000	0.0000	0.0000;
	134	133	0.0002	0.013328	0	400	0	0	1	0	1	0	0	-119.5400	-11.7300	119.5600	13.5400	0.0000	0.0000	0.0000	0.0000;
	135	133	0.00043	0.033512	0	580	0	0	1	0	1	0	0	133.9200	21.4600	-133.8500	-15.7600	0.0000	0.0000	0.0000	0.0000;
	136	133	0.00043	0.027478	0	580	0	0	1	0	1	0	0	133.9200	25.0600	-133.8500	-20.3400	0.0000	0.0000	0.0000	0.0000;
	156	133	0.001958	0.013985	0.0255	402.36	0	0	0	0	1	0	0	-46.8200	-4.4400	46.8700	2.0100	0.0000	0.0000	0.0000	0.0000;
	134	140	0.010445	0.071357	0.01214	221.1	0	0	0	0	1	0	0	31.1000	7.3300	-31.0000	-7.9200	0.0000	0.0000	0.0000	0.0000;
	134	186	0.014463	0.093412	0.01782	221.1	0	0	0	0	1	0	0	13.6100	-0.6600	-13.5900	-1.0700	0.0000	0.0000	0.0000	0.0000;
	138	139	0.026477	0.184455	0.03015	221.1	0	0	0	0	1	0	0	16.9900	1.4400	-16.9200	-4.1000	0.0000	0.0000	0.0000	0.0000;
	138	195	0.008728	0.05637	0.01075	221.1	0	0	0	0	1	0	0	-19.0900	-2.0300	19.1200	1.0800	0.0000	0.0000	0.0000	0.0000;
	141	148	0.01019	0.065817	0.01256	221.1	0	0	0	0	1	0	0	18.9400	4.4400	-18.9000	-5.4800	0.0000	0.0000	0.0000	0.0000;
	141	193	0.002896	0.018702	0.00357	221.1	0	0	0	0	1	0	0	-14.3000	-4.0100	14.3100	3.6800	0.0000	0.0000	0.0000	0.0000;
	162	144	0.006962	0.048504	0.00793	221.1	0	0	0	0	1	0	0	-11.1200	-1.0300	11.1200	0.2500	0.0000	0.0000	0.0000	0.0000;
	145	176	0.008799	0.060111	0.01023	221.1	0	0	0	0	1	0	0	-10.0600	-2.5500	10.0700	1.5200	0.0000	0.0000	0.0000	0.0000;
	185	145	0.010839	0.075509	0.01234	221.1	0	0	0	0	1	0	0	7.4900	1.1800	-7.4900	-2.4500	0.0000	0.0000	0.0000	0.0000;
	147	146	0.0025	0.10181	0	130.6	0	0	1	0	1	0	0	92.4000	8.7900	-92.2000	-0.6900	0.0000	0.0000	0.0000	0.0000;
	146	177	0.011064	0.07708	0.0126	221.1	0	0	0	0	1	0	0	34.8500	1.7400	-34.7200	-2.2000	0.0000	0.0000	0.0000	0.0000;
	150	149	0.000412	0.020251	0	400	0	0	1	0	1	0	0	-104.3000	3.7000	104.3400	-1.6600	0.0000	0.0000	0.0000	0.0000;
	151	149	0.02267	0.625521	0	20	0	0	1	0	1	0	0	1.6200	0.0200	-1.6200	-0.0100	0.0000	0.0000	0.0000	0.0000;
	152	149	0.00249	0.141687	0	100	0	0	1	0	1	0	0	23.1700	0.2700	-23.1600	0.4300	0.0000	0.0000	0.0000	0.0000;
	153	149	0.00549	0.184603	0	100	0	0	1	0	1	0	0	23.1700	0.0200	-23.1400	0.9000	0.0000	0.0000	0.0000	0.0000;
	154	149	0.00249	0.10294	0	100	0	0	1	0	1	0	0	23.1700	0.1400	-23.1600	0.3700	0.0000	0.0000	0.0000	0.0000;
	155	149	0.00249	0.099835	0	100	0	0	1	0	1	0	0	23.1700	0.1300	-23.1600	0.3600	0.0000	0.0000	0.0000	0.0000;
	185	150	0.013458	0.091934	0.01564	221.1	0	0	0	0	1	0	0	-18.2800	-4.2500	18.3200	2.8700	0.0000	0.0000	0.0000	0.0000;
	194	150	0.003138	0.021435	0.00365	221.1	0	0	0	0	1	0	0	-60.3000	11.0400	60.4100	-10.6900	0.0000	0.0000	0.0000	0.0000;
	157	156	0.000592	0.045654	0	300	0	0	1	0	1	0	0	-29.0900	-3.0100	29.1000	3.3800	0.0000	0.0000	0.0000	0.0000;
	161	160	0.00139	0.080288	0	180.2	0	0	1	0	1	0	0	0.0000	0.0000	0.0000	0.0000	0.0000	0.0000	0.0000	0.0000;
	160	181	0.004296	0.029345	0.00499	221.1	0	0	0	0	1	0	0	-3.8800	-7.5700	3.8800	7.0600	0.0000	0.0000	0.0000	0.0000;
	164	163	0.008207	0.11301	0	58.1	0	0	1	0	1	0	0	0.0000	0.0000	0.0000	0.0000	0.0000	0.0000	0.0000	0.0000;
	165	163	0.0074	0.301657	0	65	0	0	1	0	1	0	0	0.0000	0.0000	0.0000	0.0000	0.0000	0.0000	0.0000	0.0000;
	166	163	0.016368	0.382075	0	42	0	0	1	0	1	0	0	0.0000	0.0000	0.0000	0.0000	0.0000	0.0000	0.0000	0.0000;
	167	163	0.010476	0.196499	0	42	0	0	1	0	1	0	0	2.8200	-1.0400	-2.8200	1.0600	0.0000	0.0000	0.0000	0.0000;
	168	163	0.018	0.490983	0	40	0	0	1	0	1	0	0	0.0000	0.0000	0.0000	0.0000	0.0000	0.0000	0.0000	0.0000;
	169	163	0.016368	0.396417	0	40	0	0	1	0	1	0	0	0.0000	0.0000	0.0000	0.0000	0.0000	0.0000	0.0000	0.0000;
	170	163	0.016368	0.374902	0	35.6	0	0	1	0	1	0	0	2.8200	-0.9900	-2.8200	1.0200	0.0000	0.0000	0.0000	0.0000;
	163	179	0.00579	0.039557	0.00673	221.1	0	0	0	0	1	0	0	-49.1000	-0.8200	49.2300	0.9600	0.0000	0.0000	0.0000	0.0000;
	171	190	0.009866	0.0674	0.01147	221.1	0	0	0	0	1	0	0	2.1000	1.9100	-2.1000	-3.1200	0.0000	0.0000	0.0000	0.0000;
	195	171	0.011644	0.081116	0.01326	221.1	0	0	0	0	1	0	0	10.0500	2.8500	-10.0400	-4.1700	0.0000	0.0000	0.0000	0.0000;
	180	172	0.015296	0.106558	0.01742	221.1	0	0	0	0	1	0	0	-6.7000	0.5700	6.7100	-2.4300	0.0000	0.0000	0.0000	0.0000;
	199	172	0.024005	0.155042	0.02958	221.1	0	0	0	0	1	0	0	12.1200	-3.9100	-12.0900	0.9000	0.0000	0.0000	0.0000	0.0000;
	173	174	0.015373	0.099293	0.01894	221.1	0	0	0	0	1	0	0	-16.6800	-3.2600	16.7200	1.4400	0.0000	0.0000	0.0000	0.0000;
	173	175	0.008572	0.055363	0.01056	221.1	0	0	0	0	1	0	0	7.9700	0.7700	-7.9700	-1.8900	0.0000	0.0000	0.0000	0.0000;
	174	188	0.017952	0.12264	0.02087	221.1	0	0	0	0	1	0	0	-40.2000	11.1400	40.4900	-11.4500	0.0000	0.0000	0.0000	0.0000;
	179	178	0.000495	0.036157	0	250	0	0	1	0	1	0	0	-105.9100	17.0200	105.9600	-13.2200	0.0000	0.0000	0.0000	0.0000;
	180	191	0.026393	0.183866	0.03006	221.1	0	0	0	0	1	0	0	6.4200	-3.0200	-6.4100	-0.1900	0.0000	0.0000	0.0000	0.0000;
	180	199	0.012185	0.078698	0.01501	221.1	0	0	0	0	1	0	0	-32.8300	6.4500	32.9600	-7.2700	0.0000	0.0000	0.0000	0.0000;
	182	181	0.01099	0.297746	0	60.3	0	0	1	0	1	0	0	5.2500	2.1500	-5.2500	-2.0600	0.0000	0.0000	0.0000	0.0000;
	183	181	0.004627	0.114254	0	65	0	0	1	0	1	0	0	7.9800	5.7300	-7.9800	-5.6200	0.0000	0.0000	0.0000	0.0000;
	181	194	0.004395	0.028384	0.00542	221.1	0	0	0	0	1	0	0	-35.4000	-19.0400	35.4700	18.8800	0.0000	0.0000	0.0000	0.0000;
	188	187	0.001394	0.044762	0	400	0	0	1	0	1	0	0	-113.1000	8.7800	113.2700	-3.4800	0.0000	0.0000	0.0000	0.0000;
	189	187	0.0003	0.007815	0	740	0	0	1	0	1	0	0	384.3700	-24.1500	-383.9600	34.8700	0.0000	0.0000	0.0000	0.0000;
	196	195	0.00285	0.060038	0	87.7	0	0	1	0	1	0	0	0.0000	0.0000	0.0000	0.0000	0.0000	0.0000	0.0000	0.0000;
	197	195	0.00285	0.191484	0	87.7	0	0	1	0	1	0	0	0.0000	0.0000	0.0000	0.0000	0.0000	0.0000	0.0000	0.0000;
];

%%-----  OPF Data  -----%%
%% generator cost data
%	1	startup	shutdown	n	x1	y1	...	xn	yn
%	2	startup	shutdown	n	c(n-1)	...	c0
mpc.gencost = [
	2	0	0	3	0.002	19	236.12;
	2	0	0	3	0.002	19	236.12;
	2	0	0	3	0.002	19	236.12;
	2	0	0	3	0.002	19	236.12;
	2	0	0	3	0.002	19	236.24;
	2	0	0	3	0	0	0;
	2	0	0	3	0.002	19	236.13;
	2	0	0	3	0.002	19	236.74;
	2	0	0	3	0.002	19	236.74;
	2	0	0	3	0.002	19	236.74;
	2	0	0	3	0.002	19	236.74;
	2	0	0	3	0.002	19	236.74;
	2	0	0	3	0.002	19	236.74;
	2	0	0	3	0.002	23.157	606;
	2	0	0	3	0.002	23.146	603.6;
	2	0	0	3	0.002	23.252	627;
	2	0	0	3	0.002	23.252	627;
	2	0	0	3	0.002	23.152	604.8;
	2	0	0	3	0.002	23.164	607.5;
	2	0	0	3	0.002	23.173	609.45;
	2	0	0	3	0.002	19	236.48;
	2	0	0	3	0	0	0;
	2	0	0	3	0	0	0;
	2	0	0	3	0	0	0;
	2	0	0	3	0	0	0;
	2	0	0	3	0.002	19	610.14;
	2	0	0	3	0.002	19	610.14;
	2	0	0	3	0.002	19	610.14;
	2	0	0	3	0.002	19	1261.33;
	2	0	0	3	0.002	19	1261.33;
	2	0	0	3	0	0	0;
	2	0	0	3	0.002	19	236.14;
	2	0	0	3	0.002	19	253.01;
	2	0	0	3	0.002	19	253.01;
	2	0	0	3	0.002	19	253.01;
	2	0	0	3	0.002	19	253.01;
	2	0	0	3	0.002	24.07	807.9;
	2	0	0	3	0.002	23.211	618;
	2	0	0	3	0.002	23.306	639;
	2	0	0	3	0.002	23.194	614.1;
	2	0	0	3	0.002	23.194	614.1;
	2	0	0	3	0.002	23.194	614.1;
	2	0	0	3	0.002	23.194	614.1;
	2	0	0	3	0.002	23.194	614.1;
	2	0	0	3	0.002	19	236.47;
	2	0	0	3	0.002	19	236.71;
	2	0	0	3	0	6.71	1272.13;
	2	0	0	3	0.002	23.588	701.25;
	2	0	0	3	0.002	23.588	701.25;
];

%% generator unit type (see GENTYPES)
mpc.gentype = {
	'ST';
	'ST';
	'ST';
	'ST';
	'ST';
	'W2';
	'ST';
	'ST';
	'ST';
	'ST';
	'ST';
	'ST';
	'ST';
	'GT';
	'GT';
	'GT';
	'GT';
	'GT';
	'GT';
	'GT';
	'ST';
	'W2';
	'W2';
	'W2';
	'W2';
	'ST';
	'ST';
	'ST';
	'ST';
	'ST';
	'W2';
	'ST';
	'ST';
	'ST';
	'ST';
	'ST';
	'GT';
	'GT';
	'GT';
	'GT';
	'GT';
	'GT';
	'GT';
	'GT';
	'ST';
	'ST';
	'NB';
	'GT';
	'GT';
};

%% generator fuel type (see GENFUELS)
mpc.genfuel = {
	'coal';
	'coal';
	'coal';
	'coal';
	'coal';
	'wind';
	'coal';
	'coal';
	'coal';
	'coal';
	'coal';
	'coal';
	'coal';
	'ng';
	'ng';
	'ng';
	'ng';
	'ng';
	'ng';
	'ng';
	'coal';
	'wind';
	'wind';
	'wind';
	'wind';
	'coal';
	'coal';
	'coal';
	'coal';
	'coal';
	'wind';
	'coal';
	'coal';
	'coal';
	'coal';
	'coal';
	'ng';
	'ng';
	'ng';
	'ng';
	'ng';
	'ng';
	'ng';
	'ng';
	'coal';
	'coal';
	'nuclear';
	'ng';
	'ng';
};

%% bus names
mpc.bus_name = {
	'CREVE COEUR 0';
	'CREVE COEUR 1';
	'ILLIOPOLIS 0';
	'ILLIOPOLIS 1';
	'PAXTON 2 0';
	'PAXTON 2 1';
	'PEORIA 9 0';
	'PEORIA 9 1';
	'PEORIA 8 0';
	'PEORIA 8 1';
	'LOVINGTON 0';
	'LOVINGTON 1';
	'LOVINGTON 2';
	'DECATUR 3 0';
	'DECATUR 3 1';
	'DECATUR 3 2';
	'MASON CITY 0';
	'MASON CITY 1';
	'MASON CITY 2';
	'MASON CITY 3';
	'MASON CITY 4';
	'BETHANY 0';
	'BETHANY 1';
	'BETHANY 2';
	'RANKIN 0';
	'RANKIN 1';
	'WINDSOR 0';
	'WINDSOR 1';
	'PEKIN 2 0';
	'PEKIN 2 1';
	'HEYWORTH 0';
	'HEYWORTH 1';
	'HEYWORTH 2';
	'DECATUR 2 0';
	'DECATUR 2 1';
	'LINCOLN 0';
	'LINCOLN 1';
	'LINCOLN 2';
	'SHERMAN 0';
	'SHERMAN 1';
	'URBANA 2 0';
	'SPRINGFIELD 8 0';
	'CARLOCK 0';
	'PLEASANT PLAINS 0';
	'LE ROY 0';
	'LE ROY 1';
	'DECATUR 1 0';
	'RANTOUL 2 0';
	'RANTOUL 2 1';
	'RANTOUL 2 2';
	'RANTOUL 2 3';
	'RANTOUL 2 4';
	'RANTOUL 2 5';
	'MACON 0';
	'ELLSWORTH 2 0';
	'ELLSWORTH 2 1';
	'MOUNT PULASKI 0';
	'WAPELLA 0';
	'ROANOKE 0';
	'GREEN VALLEY 0';
	'BLOOMINGTON 3 0';
	'SPRINGFIELD 7 0';
	'BEMENT 0';
	'PAXTON 1 0';
	'PAXTON 1 1';
	'MOUNT ZION 0';
	'MOUNT ZION 1';
	'MOUNT ZION 2';
	'MOUNT ZION 3';
	'MOUNT ZION 4';
	'MOUNT ZION 5';
	'MOUNT ZION 6';
	'MOUNT ZION 7';
	'RANTOUL 1 0';
	'BRIMFIELD 0';
	'BRIMFIELD 1';
	'BRIMFIELD 2';
	'BRIMFIELD 3';
	'BRIMFIELD 4';
	'WELDON 0';
	'GIBSON CITY 2 0';
	'GIBSON CITY 2 1';
	'MINIER 0';
	'HUDSON 0';
	'ATHENS 0';
	'PEORIA HEIGHTS 0';
	'SPRINGFIELD 6 0';
	'SPRINGFIELD 6 1';
	'CLINTON 3 0';
	'CLINTON 3 1';
	'CLINTON 3 2';
	'CLINTON 3 3';
	'TUSCOLA 2 0';
	'TUSCOLA 2 1';
	'KENNEY 0';
	'MANSFIELD 0';
	'MANITO 0';
	'DUNLAP 0';
	'DUNLAP 1';
	'CHAMPAIGN 3 0';
	'PEORIA 7 0';
	'ELLSWORTH 1 0';
	'ELLSWORTH 1 1';
	'ELLSWORTH 1 2';
	'ELLSWORTH 1 3';
	'TOWANDA 0';
	'BLOOMINGTON 2 0';
	'PRINCEVILLE 0';
	'DELAVAN 0';
	'PEORIA 6 0';
	'SAVOY 0';
	'NORMAL 2 0';
	'NORMAL 2 1';
	'NORMAL 2 2';
	'NORMAL 2 3';
	'EAST PEORIA 0';
	'EAST PEORIA 1';
	'HANNA CITY 0';
	'METAMORA 0';
	'GREENVIEW 0';
	'CLINTON 2 0';
	'CLINTON 2 1';
	'BARTONVILLE 0';
	'BARTONVILLE 1';
	'BARTONVILLE 2';
	'BARTONVILLE 3';
	'BARTONVILLE 4';
	'NORMAL 1 0';
	'NORMAL 1 1';
	'LEXINGTON 0';
	'PEORIA 5 0';
	'MORTON 0';
	'PEKIN 1 0';
	'PEKIN 1 1';
	'PEKIN 1 2';
	'PEKIN 1 3';
	'NIANTIC 0';
	'COLFAX 0';
	'EL PASO 0';
	'TREMONT 0';
	'PEORIA 4 0';
	'PEORIA 3 0';
	'CHAMPAIGN 2 0';
	'EUREKA 0';
	'CHATHAM 0';
	'HOPEDALE 2 0';
	'HOPEDALE 2 1';
	'WASHINGTON 0';
	'SPRINGFIELD 5 0';
	'SPRINGFIELD 5 1';
	'SPRINGFIELD 5 2';
	'SPRINGFIELD 5 3';
	'SPRINGFIELD 5 4';
	'SPRINGFIELD 5 5';
	'SPRINGFIELD 5 6';
	'PEORIA 2 0';
	'PEORIA 2 1';
	'MT ZION 0';
	'BUFFALO 0';
	'SPRINGFIELD 4 0';
	'SPRINGFIELD 4 1';
	'CONGERVILLE 0';
	'CHAMPAIGN 1 0';
	'CHAMPAIGN 1 1';
	'CHAMPAIGN 1 2';
	'CHAMPAIGN 1 3';
	'CHAMPAIGN 1 4';
	'CHAMPAIGN 1 5';
	'CHAMPAIGN 1 6';
	'CHAMPAIGN 1 7';
	'FISHER 0';
	'HOMER 0';
	'TUSCOLA 1 0';
	'WHITE HEATH 0';
	'TOLONO 0';
	'SPRINGFIELD 3 0';
	'MACKINAW 0';
	'URBANA 1 0';
	'URBANA 1 1';
	'SAINT JOSEPH 0';
	'SPRINGFIELD 2 0';
	'SPRINGFIELD 2 1';
	'SPRINGFIELD 2 2';
	'MONTICELLO 0';
	'AUBURN 0';
	'HOPEDALE 1 0';
	'CLINTON 1 0';
	'CLINTON 1 1';
	'CLINTON 1 2';
	'MAHOMET 0';
	'VILLA GROVE 0';
	'BLOOMINGTON 1 0';
	'PEORIA 1 0';
	'SPRINGFIELD 1 0';
	'GIBSON CITY 1 0';
	'GIBSON CITY 1 1';
	'GIBSON CITY 1 2';
	'MAPLETON 0';
	'GIFFORD 0';
	'PETERSBURG 0';
};
